%%%%%%%%%%%%%%%%%%%%%%%%%%%%%%%%%%%%%%%%%%%%%%%%%%%%%%%%%%%%%%%%%%%%%%%%%%%%%%%%
%                                                                              %
% SU2 configuration file                                                       %
% Case description: turbulent 90 degree bend flow of Sudo (2001)               %
% Reynolds = 1.185*8.7*0.104/1.785e-5 ~ 60,000
% Author: Nijso Beishuizen                                                     %
% Date: 2022.01.13                                                             %
% File Version 7.2.1 "Blackbird"                                               %
%                                                                              %
%%%%%%%%%%%%%%%%%%%%%%%%%%%%%%%%%%%%%%%%%%%%%%%%%%%%%%%%%%%%%%%%%%%%%%%%%%%%%%%%
%
% ------------- DIRECT, ADJOINT, AND LINEARIZED PROBLEM DEFINITION ------------%
%
SOLVER= INC_RANS
INC_ENERGY_EQUATION= NO 
INC_NONDIM= DIMENSIONAL
KIND_TURB_MODEL= SST
SST_OPTIONS= V2003m
MATH_PROBLEM= DIRECT
RESTART_SOL= YES
%
% ---------------- INCOMPRESSIBLE FLOW CONDITION DEFINITION -------------------%
%
INC_DENSITY_INIT= 1.185
INC_DENSITY_REF = 1.185
INC_VELOCITY_INIT= ( 0.0, 0.0, 1.0 )
INC_VELOCITY_REF = 8.0
INC_INLET_TYPE= VELOCITY_INLET
INC_OUTLET_TYPE= PRESSURE_OUTLET
%
% --------------------------- VISCOSITY MODEL ---------------------------------%
%
VISCOSITY_MODEL= CONSTANT_VISCOSITY
MU_CONSTANT= 1.785e-5
%
% -------------------- BOUNDARY CONDITION DEFINITION --------------------------%
%
%MARKER_WALL_FUNCTIONS= ( wall_1, STANDARD_WALL_FUNCTION, wall_2,STANDARD_WALL_FUNCTION, wall_bend, STANDARD_WALL_FUNCTION )
WALLMODEL_KAPPA= 0.41
WALLMODEL_B= 5.5
WALLMODEL_MINYPLUS= 1.0
WALLMODEL_MAXITER= 200
WALLMODEL_RELFAC= 0.5
%
%
SPECIFIED_INLET_PROFILE= NO 
INLET_FILENAME= inlet.dat
MARKER_HEATFLUX= ( wall_1, 0.0, wall_2,0.0, wall_bend,0.0)
%
MARKER_INLET= ( inlet, 300.0, 8.7, 0.0, 0.0, 1.0 )
MARKER_OUTLET= ( outlet, 0.0)
MARKER_SYM= ( symmetry_1, symmetry_bend, symmetry_2 )
%
MARKER_MONITORING= ( inlet,outlet)
% Marker(s) of the surface to be plotted or designed
MARKER_PLOTTING= ( wall_bend  )
MARKER_ANALYZE= ( inlet,outlet )
MARKER_ANALYZE_AVERAGE= MASSFLUX
%
% ------------- COMMON PARAMETERS DEFINING THE NUMERICAL METHOD ---------------%
%
NUM_METHOD_GRAD= WEIGHTED_LEAST_SQUARES
CFL_NUMBER=100
CFL_ADAPT= YES
CFL_ADAPT_PARAM= ( 0.9, 1.10, 10.0, 1000, 0.10)
ITER= 2000
%
% ------------------------ LINEAR SOLVER DEFINITION ---------------------------%
%
LINEAR_SOLVER= FGMRES
USE_VECTORIZATION= YES
LINEAR_SOLVER_PREC= LU_SGS
LINEAR_SOLVER_ERROR= 1E-6
LINEAR_SOLVER_ITER= 10
%
% -------------------------- MULTIGRID PARAMETERS -----------------------------%
%
MGLEVEL= 0
%
% -------------------- FLOW NUMERICAL METHOD DEFINITION -----------------------%
%
CONV_NUM_METHOD_FLOW= FDS
MUSCL_FLOW= YES
SLOPE_LIMITER_FLOW= NONE
TIME_DISCRE_FLOW= EULER_IMPLICIT
%
% -------------------- TURBULENT NUMERICAL METHOD DEFINITION ------------------%
%
CONV_NUM_METHOD_TURB= SCALAR_UPWIND
MUSCL_TURB= NO 
SLOPE_LIMITER_TURB= NONE
TIME_DISCRE_TURB= EULER_IMPLICIT
FREESTREAM_TURBULENCEINTENSITY= 0.05
FREESTREAM_TURB2LAMVISCRATIO= 10.0
%
% --------------------------- CONVERGENCE PARAMETERS --------------------------%
%
CONV_FIELD= RMS_PRESSURE, RMS_DISSIPATION
CONV_RESIDUAL_MINVAL= -14
CONV_STARTITER= 10
CONV_CAUCHY_ELEMS= 100
CONV_CAUCHY_EPS= 1E-6
%
% ------------------------- INPUT/OUTPUT INFORMATION --------------------------%
%
MESH_FILENAME= sudo.su2
SOLUTION_FILENAME= solution
CONV_FILENAME= history
RESTART_FILENAME= restart
WRT_RESTART_OVERWRITE= YES
WRT_VOLUME_OVERWRITE= YES
WRT_PERFORMANCE= YES
VOLUME_FILENAME= flow
SCREEN_WRT_FREQ_INNER= 1
SCREEN_WRT_FREQ_OUTER= 1
OUTPUT_FILES= PARAVIEW_MULTIBLOCK RESTART
OUTPUT_WRT_FREQ= 50 50
SCREEN_OUTPUT= INNER_ITER RMS_PRESSURE RMS_VELOCITY-X RMS_VELOCITY-Y RMS_VELOCITY-Z RMS_TKE RMS_DISSIPATION LINSOL_ITER LINSOL_RESIDUAL AVG_CFL
VOLUME_OUTPUT= SOLUTION PRIMITIVE RESIDUAL
HISTORY_OUTPUT= INNER_ITER SURFACE_MASSFLOW RMS_VELOCITY-X RMS_VELOCITY-Y RMS_VELOCITY-Z RMS_TKE RMS_DISSIPATION RMS_PRESSURE
